# BAS6 package for MODFLOW-2005 generated by Flopy 3.9.5
FREE
INTERNAL               1    (35I10) -1 #ibound layer 1                
        -1         1         1         1         1         1         1         1         1         1         1         1         1         1         1         1         1         1         1         1         1         1         1         1         1         1         1         1         1         1         1         1         1         1        -1
        -1         1         1         1         1         1         1         1         1         1         1         1         1         1         1         1         1         1         1         1         1         1         1         1         1         1         1         1         1         1         1         1         1         1        -1
        -1         1         1         1         1         1         1         1         1         1         1         1         1         1         1         1         1         1         1         1         1         1         1         1         1         1         1         1         1         1         1         1         1         1        -1
        -1         1         1         1         1         1         1         1         1         1         1         1         1         1         1         1         1         1         1         1         1         1         1         1         1         1         1         1         1         1         1         1         1         1        -1
        -1         1         1         1         1         1         1         1         1         1         1         1         1         1         1         1         1         1         1         1         1         1         1         1         1         1         1         1         1         1         1         1         1         1        -1
        -1         1         1         1         1         1         1         1         1         1         1         1         1         1         1         1         1         1         1         1         1         1         1         1         1         1         1         1         1         1         1         1         1         1        -1
        -1         1         1         1         1         1         1         1         1         1         1         1         1         1         1         1         1         1         1         1         1         1         1         1         1         1         1         1         1         1         1         1         1         1        -1
        -1         1         1         1         1         1         1         1         1         1         1         1         1         1         1         1         1         1         1         1         1         1         1         1         1         1         1         1         1         1         1         1         1         1        -1
        -1         1         1         1         1         1         1         1         1         1         1         1         1         1         1         1         1         1         1         1         1         1         1         1         1         1         1         1         1         1         1         1         1         1        -1
        -1         1         1         1         1         1         1         1         1         1         1         1         1         1         1         1         1         1         1         1         1         1         1         1         1         1         1         1         1         1         1         1         1         1        -1
        -1         1         1         1         1         1         1         1         1         1         1         1         1         1         1         1         1         1         1         1         1         1         1         1         1         1         1         1         1         1         1         1         1         1        -1
        -1         1         1         1         1         1         1         1         1         1         1         1         1         1         1         1         1         1         1         1         1         1         1         1         1         1         1         1         1         1         1         1         1         1        -1
        -1         1         1         1         1         1         1         1         1         1         1         1         1         1         1         1         1         1         1         1         1         1         1         1         1         1         1         1         1         1         1         1         1         1        -1
        -1         1         1         1         1         1         1         1         1         1         1         1         1         1         1         1         1         1         1         1         1         1         1         1         1         1         1         1         1         1         1         1         1         1        -1
        -1         1         1         1         1         1         1         1         1         1         1         1         1         1         1         1         1         1         1         1         1         1         1         1         1         1         1         1         1         1         1         1         1         1        -1
        -1         1         1         1         1         1         1         1         1         1         1         1         1         1         1         1         1         1         1         1         1         1         1         1         1         1         1         1         1         1         1         1         1         1        -1
        -1         1         1         1         1         1         1         1         1         1         1         1         1         1         1         1         1         1         1         1         1         1         1         1         1         1         1         1         1         1         1         1         1         1        -1
        -1         1         1         1         1         1         1         1         1         1         1         1         1         1         1         1         1         1         1         1         1         1         1         1         1         1         1         1         1         1         1         1         1         1        -1
        -1         1         1         1         1         1         1         1         1         1         1         1         1         1         1         1         1         1         1         1         1         1         1         1         1         1         1         1         1         1         1         1         1         1        -1
        -1         1         1         1         1         1         1         1         1         1         1         1         1         1         1         1         1         1         1         1         1         1         1         1         1         1         1         1         1         1         1         1         1         1        -1
        -1         1         1         1         1         1         1         1         1         1         1         1         1         1         1         1         1         1         1         1         1         1         1         1         1         1         1         1         1         1         1         1         1         1        -1
        -1         1         1         1         1         1         1         1         1         1         1         1         1         1         1         1         1         1         1         1         1         1         1         1         1         1         1         1         1         1         1         1         1         1        -1
        -1         1         1         1         1         1         1         1         1         1         1         1         1         1         1         1         1         1         1         1         1         1         1         1         1         1         1         1         1         1         1         1         1         1        -1
        -1         1         1         1         1         1         1         1         1         1         1         1         1         1         1         1         1         1         1         1         1         1         1         1         1         1         1         1         1         1         1         1         1         1        -1
        -1         1         1         1         1         1         1         1         1         1         1         1         1         1         1         1         1         1         1         1         1         1         1         1         1         1         1         1         1         1         1         1         1         1        -1
        -1         1         1         1         1         1         1         1         1         1         1         1         1         1         1         1         1         1         1         1         1         1         1         1         1         1         1         1         1         1         1         1         1         1        -1
        -1         1         1         1         1         1         1         1         1         1         1         1         1         1         1         1         1         1         1         1         1         1         1         1         1         1         1         1         1         1         1         1         1         1        -1
        -1         1         1         1         1         1         1         1         1         1         1         1         1         1         1         1         1         1         1         1         1         1         1         1         1         1         1         1         1         1         1         1         1         1        -1
        -1         1         1         1         1         1         1         1         1         1         1         1         1         1         1         1         1         1         1         1         1         1         1         1         1         1         1         1         1         1         1         1         1         1        -1
        -1         1         1         1         1         1         1         1         1         1         1         1         1         1         1         1         1         1         1         1         1         1         1         1         1         1         1         1         1         1         1         1         1         1        -1
        -1         1         1         1         1         1         1         1         1         1         1         1         1         1         1         1         1         1         1         1         1         1         1         1         1         1         1         1         1         1         1         1         1         1        -1
        -1         1         1         1         1         1         1         1         1         1         1         1         1         1         1         1         1         1         1         1         1         1         1         1         1         1         1         1         1         1         1         1         1         1        -1
        -1         1         1         1         1         1         1         1         1         1         1         1         1         1         1         1         1         1         1         1         1         1         1         1         1         1         1         1         1         1         1         1         1         1        -1
        -1         1         1         1         1         1         1         1         1         1         1         1         1         1         1         1         1         1         1         1         1         1         1         1         1         1         1         1         1         1         1         1         1         1        -1
        -1         1         1         1         1         1         1         1         1         1         1         1         1         1         1         1         1         1         1         1         1         1         1         1         1         1         1         1         1         1         1         1         1         1        -1
   -999.99
INTERNAL               1  (35E15.6) -1 #strt layer 1                  
   4.980000E+02   4.980000E+02   4.964271E+02   4.944387E+02   4.928327E+02   4.912266E+02   4.896205E+02   4.880145E+02   4.864084E+02   4.848024E+02   4.831963E+02   4.815902E+02   4.799842E+02   4.783781E+02   4.767721E+02   4.751660E+02   4.735599E+02   4.719539E+02   4.703478E+02   4.687418E+02   4.671357E+02   4.655296E+02   4.639236E+02   4.623175E+02   4.607115E+02   4.591054E+02   4.574993E+02   4.558933E+02   4.542872E+02   4.526812E+02   4.510751E+02   4.494690E+02   4.478630E+02   4.462569E+02   4.450000E+02
   4.980000E+02   4.980000E+02   4.972870E+02   4.952842E+02   4.932814E+02   4.912786E+02   4.892758E+02   4.873162E+02   4.857101E+02   4.841041E+02   4.824980E+02   4.808920E+02   4.792859E+02   4.776798E+02   4.760738E+02   4.744677E+02   4.728617E+02   4.712556E+02   4.696495E+02   4.680435E+02   4.664374E+02   4.648314E+02   4.632253E+02   4.616192E+02   4.600132E+02   4.584071E+02   4.568011E+02   4.551950E+02   4.535889E+02   4.519829E+02   4.503768E+02   4.487708E+02   4.471647E+02   4.457997E+02   4.450000E+02
   4.980000E+02   4.980000E+02   4.972711E+02   4.961441E+02   4.941413E+02   4.921385E+02   4.901357E+02   4.881329E+02   4.861300E+02   4.841272E+02   4.821244E+02   4.801937E+02   4.785876E+02   4.769815E+02   4.753755E+02   4.737694E+02   4.721634E+02   4.705573E+02   4.689512E+02   4.673452E+02   4.657391E+02   4.641331E+02   4.625270E+02   4.609209E+02   4.593149E+02   4.577088E+02   4.561028E+02   4.544967E+02   4.528906E+02   4.512846E+02   4.496785E+02   4.480724E+02   4.466036E+02   4.457910E+02   4.450000E+02
   4.980000E+02   4.980000E+02   4.972307E+02   4.966027E+02   4.950012E+02   4.929984E+02   4.909956E+02   4.889928E+02   4.869900E+02   4.849871E+02   4.829843E+02   4.809815E+02   4.789787E+02   4.769759E+02   4.749730E+02   4.730711E+02   4.714651E+02   4.698590E+02   4.682530E+02   4.666469E+02   4.650408E+02   4.634348E+02   4.618287E+02   4.602227E+02   4.586166E+02   4.570105E+02   4.554045E+02   4.537984E+02   4.521924E+02   4.505863E+02   4.489802E+02   4.474076E+02   4.465950E+02   4.457824E+02   4.450000E+02
   4.980000E+02   4.980000E+02   4.971902E+02   4.965623E+02   4.958611E+02   4.938583E+02   4.918555E+02   4.898527E+02   4.878499E+02   4.858470E+02   4.838442E+02   4.818414E+02   4.798386E+02   4.778358E+02   4.758329E+02   4.738301E+02   4.718273E+02   4.698245E+02   4.678217E+02   4.659486E+02   4.643425E+02   4.627365E+02   4.611304E+02   4.595244E+02   4.579183E+02   4.563122E+02   4.547062E+02   4.531001E+02   4.514940E+02   4.498880E+02   4.482819E+02   4.473990E+02   4.465864E+02   4.457738E+02   4.450000E+02
   4.980000E+02   4.980000E+02   4.971499E+02   4.965219E+02   4.958939E+02   4.947182E+02   4.927154E+02   4.907126E+02   4.887098E+02   4.867069E+02   4.847041E+02   4.827013E+02   4.806985E+02   4.786957E+02   4.766928E+02   4.746900E+02   4.726872E+02   4.706844E+02   4.686816E+02   4.666787E+02   4.646759E+02   4.626731E+02   4.606703E+02   4.588261E+02   4.572200E+02   4.556140E+02   4.540079E+02   4.524018E+02   4.507958E+02   4.491897E+02   4.482030E+02   4.473904E+02   4.465778E+02   4.457652E+02   4.450000E+02
   4.980000E+02   4.980000E+02   4.971095E+02   4.964815E+02   4.958535E+02   4.952256E+02   4.933216E+02   4.913464E+02   4.893712E+02   4.873960E+02   4.854207E+02   4.834456E+02   4.814703E+02   4.794951E+02   4.775199E+02   4.755447E+02   4.735471E+02   4.715443E+02   4.695415E+02   4.675387E+02   4.655359E+02   4.635330E+02   4.615302E+02   4.595274E+02   4.575246E+02   4.555218E+02   4.535189E+02   4.517035E+02   4.500975E+02   4.490069E+02   4.481943E+02   4.473817E+02   4.465692E+02   4.457566E+02   4.450000E+02
   4.980000E+02   4.980000E+02   4.970691E+02   4.964411E+02   4.958131E+02   4.951852E+02   4.932492E+02   4.912740E+02   4.892987E+02   4.873235E+02   4.853483E+02   4.833731E+02   4.813979E+02   4.794227E+02   4.774475E+02   4.754723E+02   4.734971E+02   4.715219E+02   4.695467E+02   4.675715E+02   4.655963E+02   4.636211E+02   4.616458E+02   4.596707E+02   4.576954E+02   4.557202E+02   4.537450E+02   4.517698E+02   4.498731E+02   4.489983E+02   4.481857E+02   4.473731E+02   4.465605E+02   4.457808E+02   4.450000E+02
   4.980000E+02   4.980000E+02   4.970287E+02   4.964007E+02   4.957727E+02   4.951448E+02   4.931768E+02   4.912015E+02   4.892263E+02   4.872511E+02   4.852759E+02   4.833007E+02   4.813255E+02   4.793503E+02   4.773751E+02   4.753999E+02   4.734247E+02   4.714495E+02   4.694743E+02   4.674991E+02   4.655238E+02   4.635486E+02   4.615734E+02   4.595982E+02   4.576230E+02   4.556478E+02   4.536726E+02   4.517794E+02   4.499314E+02   4.489897E+02   4.481771E+02   4.473645E+02   4.465519E+02   4.458093E+02   4.450000E+02
   4.980000E+02   4.980000E+02   4.970286E+02   4.963603E+02   4.957324E+02   4.950795E+02   4.931043E+02   4.911291E+02   4.891539E+02   4.871787E+02   4.852035E+02   4.832283E+02   4.812531E+02   4.792779E+02   4.773027E+02   4.753275E+02   4.733523E+02   4.713770E+02   4.694019E+02   4.674266E+02   4.654514E+02   4.634762E+02   4.615010E+02   4.595258E+02   4.575506E+02   4.555754E+02   4.536858E+02   4.518378E+02   4.499897E+02   4.489811E+02   4.481685E+02   4.473559E+02   4.465433E+02   4.458379E+02   4.450000E+02
   4.980000E+02   4.980000E+02   4.970286E+02   4.963199E+02   4.956920E+02   4.950071E+02   4.930319E+02   4.910567E+02   4.890815E+02   4.871063E+02   4.851311E+02   4.831559E+02   4.811807E+02   4.792055E+02   4.772303E+02   4.752551E+02   4.732798E+02   4.713046E+02   4.693294E+02   4.673542E+02   4.653790E+02   4.634038E+02   4.614286E+02   4.594534E+02   4.574782E+02   4.555922E+02   4.537441E+02   4.518961E+02   4.500480E+02   4.489725E+02   4.481599E+02   4.473473E+02   4.465347E+02   4.458665E+02   4.450000E+02
   4.980000E+02   4.980000E+02   4.970286E+02   4.962795E+02   4.956516E+02   4.949347E+02   4.929595E+02   4.909843E+02   4.890091E+02   4.870339E+02   4.850587E+02   4.830835E+02   4.811082E+02   4.791331E+02   4.771578E+02   4.751826E+02   4.732074E+02   4.712322E+02   4.692570E+02   4.672818E+02   4.653066E+02   4.633314E+02   4.613562E+02   4.593810E+02   4.574985E+02   4.556505E+02   4.538024E+02   4.519544E+02   4.501063E+02   4.489638E+02   4.481512E+02   4.473387E+02   4.465261E+02   4.458951E+02   4.450000E+02
   4.980000E+02   4.980000E+02   4.970286E+02   4.962391E+02   4.956112E+02   4.948623E+02   4.928871E+02   4.909119E+02   4.889367E+02   4.869615E+02   4.849863E+02   4.830110E+02   4.810358E+02   4.790606E+02   4.770854E+02   4.751102E+02   4.731350E+02   4.711598E+02   4.691846E+02   4.672094E+02   4.652342E+02   4.632590E+02   4.612838E+02   4.594048E+02   4.575568E+02   4.557088E+02   4.538607E+02   4.520127E+02   4.501646E+02   4.489552E+02   4.481426E+02   4.473300E+02   4.465175E+02   4.459236E+02   4.450000E+02
   4.980000E+02   4.980000E+02   4.970286E+02   4.961988E+02   4.955708E+02   4.947899E+02   4.928147E+02   4.908395E+02   4.888643E+02   4.868890E+02   4.849138E+02   4.829386E+02   4.809634E+02   4.789882E+02   4.770130E+02   4.750378E+02   4.730626E+02   4.710874E+02   4.691122E+02   4.671370E+02   4.651618E+02   4.631866E+02   4.613112E+02   4.594632E+02   4.576151E+02   4.557671E+02   4.539190E+02   4.520710E+02   4.502229E+02   4.489466E+02   4.481340E+02   4.473214E+02   4.465187E+02   4.459522E+02   4.450000E+02
   4.980000E+02   4.980000E+02   4.970286E+02   4.961584E+02   4.955304E+02   4.947175E+02   4.927422E+02   4.907671E+02   4.887918E+02   4.868166E+02   4.848414E+02   4.828662E+02   4.808910E+02   4.789158E+02   4.769406E+02   4.749654E+02   4.729902E+02   4.710150E+02   4.690398E+02   4.670646E+02   4.650894E+02   4.632176E+02   4.613695E+02   4.595215E+02   4.576734E+02   4.558253E+02   4.539773E+02   4.521293E+02   4.502812E+02   4.489380E+02   4.481254E+02   4.473128E+02   4.465472E+02   4.459808E+02   4.450000E+02
   4.980000E+02   4.980000E+02   4.970286E+02   4.961180E+02   4.954900E+02   4.946451E+02   4.926698E+02   4.906946E+02   4.887194E+02   4.867442E+02   4.847690E+02   4.827938E+02   4.808186E+02   4.788434E+02   4.768682E+02   4.748930E+02   4.729178E+02   4.709426E+02   4.689673E+02   4.669922E+02   4.651239E+02   4.632758E+02   4.614278E+02   4.595797E+02   4.577317E+02   4.558837E+02   4.540356E+02   4.521876E+02   4.503395E+02   4.489294E+02   4.481168E+02   4.473042E+02   4.465758E+02   4.460093E+02   4.450000E+02
   4.980000E+02   4.980000E+02   4.970286E+02   4.960776E+02   4.954496E+02   4.945726E+02   4.925974E+02   4.906222E+02   4.886470E+02   4.866718E+02   4.846966E+02   4.827214E+02   4.807462E+02   4.787710E+02   4.767958E+02   4.748206E+02   4.728453E+02   4.708701E+02   4.688949E+02   4.670302E+02   4.651822E+02   4.633341E+02   4.614861E+02   4.596381E+02   4.577900E+02   4.559420E+02   4.540939E+02   4.522459E+02   4.503978E+02   4.489207E+02   4.481082E+02   4.472956E+02   4.466044E+02   4.460379E+02   4.450000E+02
   4.980000E+02   4.980000E+02   4.970286E+02   4.960571E+02   4.954092E+02   4.945002E+02   4.925250E+02   4.905498E+02   4.885746E+02   4.865994E+02   4.846242E+02   4.826490E+02   4.806738E+02   4.786985E+02   4.767234E+02   4.747481E+02   4.727729E+02   4.707977E+02   4.689366E+02   4.670885E+02   4.652405E+02   4.633925E+02   4.615444E+02   4.596964E+02   4.578483E+02   4.560003E+02   4.541522E+02   4.523042E+02   4.504561E+02   4.489121E+02   4.480995E+02   4.472870E+02   4.466330E+02   4.460665E+02   4.450000E+02
   4.980000E+02   4.980000E+02   4.970286E+02   4.960571E+02   4.953688E+02   4.944278E+02   4.924526E+02   4.904774E+02   4.885022E+02   4.865270E+02   4.845518E+02   4.825766E+02   4.806013E+02   4.786261E+02   4.766509E+02   4.746757E+02   4.727005E+02   4.708429E+02   4.689949E+02   4.671469E+02   4.652988E+02   4.634507E+02   4.616027E+02   4.597547E+02   4.579066E+02   4.560586E+02   4.542105E+02   4.523625E+02   4.505144E+02   4.489035E+02   4.480909E+02   4.472783E+02   4.466615E+02   4.460951E+02   4.450000E+02
   4.980000E+02   4.980000E+02   4.970286E+02   4.960571E+02   4.953284E+02   4.943554E+02   4.923802E+02   4.904050E+02   4.884297E+02   4.864546E+02   4.844793E+02   4.825042E+02   4.805289E+02   4.785537E+02   4.765785E+02   4.746033E+02   4.727493E+02   4.709012E+02   4.690532E+02   4.672051E+02   4.653571E+02   4.635091E+02   4.616610E+02   4.598130E+02   4.579649E+02   4.561169E+02   4.542688E+02   4.524208E+02   4.505727E+02   4.488949E+02   4.480823E+02   4.472697E+02   4.466901E+02   4.461236E+02   4.450000E+02
   4.980000E+02   4.980000E+02   4.970286E+02   4.960571E+02   4.952880E+02   4.942830E+02   4.923078E+02   4.903326E+02   4.883573E+02   4.863821E+02   4.844069E+02   4.824317E+02   4.804565E+02   4.784813E+02   4.765061E+02   4.746556E+02   4.728076E+02   4.709595E+02   4.691115E+02   4.672635E+02   4.654154E+02   4.635674E+02   4.617193E+02   4.598713E+02   4.580232E+02   4.561752E+02   4.543271E+02   4.524791E+02   4.506310E+02   4.488863E+02   4.480737E+02   4.472852E+02   4.467187E+02   4.461522E+02   4.450000E+02
   4.980000E+02   4.980000E+02   4.970286E+02   4.960571E+02   4.952476E+02   4.942105E+02   4.922354E+02   4.902601E+02   4.882849E+02   4.863097E+02   4.843345E+02   4.823593E+02   4.803841E+02   4.784100E+02   4.765620E+02   4.747139E+02   4.728659E+02   4.710179E+02   4.691698E+02   4.673217E+02   4.654737E+02   4.636257E+02   4.617776E+02   4.599296E+02   4.580815E+02   4.562335E+02   4.543854E+02   4.525374E+02   4.506893E+02   4.488777E+02   4.480651E+02   4.473137E+02   4.467472E+02   4.461808E+02   4.450000E+02
   4.980000E+02   4.980000E+02   4.970286E+02   4.960571E+02   4.952072E+02   4.941381E+02   4.921629E+02   4.901877E+02   4.882125E+02   4.862373E+02   4.842621E+02   4.822869E+02   4.803164E+02   4.784683E+02   4.766203E+02   4.747722E+02   4.729242E+02   4.710761E+02   4.692281E+02   4.673801E+02   4.655320E+02   4.636840E+02   4.618359E+02   4.599879E+02   4.581398E+02   4.562918E+02   4.544437E+02   4.525957E+02   4.507476E+02   4.488996E+02   4.480565E+02   4.473423E+02   4.467758E+02   4.462093E+02   4.450000E+02
   4.980000E+02   4.980000E+02   4.970286E+02   4.960571E+02   4.951668E+02   4.940657E+02   4.920905E+02   4.901153E+02   4.881401E+02   4.861649E+02   4.841897E+02   4.822227E+02   4.803747E+02   4.785266E+02   4.766786E+02   4.748305E+02   4.729825E+02   4.711345E+02   4.692864E+02   4.674384E+02   4.655903E+02   4.637422E+02   4.618942E+02   4.600462E+02   4.581981E+02   4.563501E+02   4.545020E+02   4.526540E+02   4.508059E+02   4.489579E+02   4.480478E+02   4.473708E+02   4.468044E+02   4.462379E+02   4.450000E+02
   4.980000E+02   4.980000E+02   4.970286E+02   4.960571E+02   4.951265E+02   4.939933E+02   4.920181E+02   4.900429E+02   4.880677E+02   4.860925E+02   4.841291E+02   4.822810E+02   4.804330E+02   4.785849E+02   4.767369E+02   4.748889E+02   4.730408E+02   4.711927E+02   4.693447E+02   4.674966E+02   4.656486E+02   4.638006E+02   4.619525E+02   4.601045E+02   4.582564E+02   4.564084E+02   4.545603E+02   4.527123E+02   4.508642E+02   4.490162E+02   4.480392E+02   4.473994E+02   4.468329E+02   4.462665E+02   4.450000E+02
   4.980000E+02   4.980000E+02   4.970286E+02   4.960571E+02   4.950861E+02   4.939209E+02   4.919457E+02   4.899705E+02   4.879953E+02   4.860354E+02   4.841874E+02   4.823393E+02   4.804913E+02   4.786432E+02   4.767952E+02   4.749471E+02   4.730991E+02   4.712510E+02   4.694030E+02   4.675550E+02   4.657069E+02   4.638589E+02   4.620108E+02   4.601628E+02   4.583147E+02   4.564667E+02   4.546186E+02   4.527706E+02   4.509225E+02   4.490745E+02   4.480306E+02   4.474280E+02   4.468615E+02   4.462950E+02   4.450000E+02
   4.980000E+02   4.980000E+02   4.970286E+02   4.960571E+02   4.950857E+02   4.938485E+02   4.918733E+02   4.898981E+02   4.879418E+02   4.860937E+02   4.842457E+02   4.823976E+02   4.805496E+02   4.787015E+02   4.768535E+02   4.750054E+02   4.731574E+02   4.713094E+02   4.694613E+02   4.676133E+02   4.657652E+02   4.639172E+02   4.620691E+02   4.602211E+02   4.583730E+02   4.565250E+02   4.546769E+02   4.528289E+02   4.509808E+02   4.491328E+02   4.480230E+02   4.474566E+02   4.468901E+02   4.463236E+02   4.450000E+02
   4.980000E+02   4.980000E+02   4.970286E+02   4.960571E+02   4.950857E+02   4.937761E+02   4.918008E+02   4.898481E+02   4.880001E+02   4.861520E+02   4.843040E+02   4.824559E+02   4.806079E+02   4.787598E+02   4.769118E+02   4.750638E+02   4.732157E+02   4.713676E+02   4.695196E+02   4.676716E+02   4.658235E+02   4.639755E+02   4.621274E+02   4.602794E+02   4.584313E+02   4.565833E+02   4.547352E+02   4.528872E+02   4.510392E+02   4.491911E+02   4.480516E+02   4.474851E+02   4.469187E+02   4.463522E+02   4.450000E+02
   4.980000E+02   4.980000E+02   4.970286E+02   4.960571E+02   4.950857E+02   4.937036E+02   4.917545E+02   4.899064E+02   4.880584E+02   4.862103E+02   4.843623E+02   4.825143E+02   4.806662E+02   4.788181E+02   4.769701E+02   4.751220E+02   4.732740E+02   4.714260E+02   4.695779E+02   4.677299E+02   4.658818E+02   4.640338E+02   4.621857E+02   4.603377E+02   4.584896E+02   4.566416E+02   4.547935E+02   4.529455E+02   4.510974E+02   4.492494E+02   4.480802E+02   4.475137E+02   4.469472E+02   4.463808E+02   4.450000E+02
   4.980000E+02   4.980000E+02   4.970286E+02   4.960571E+02   4.950857E+02   4.936608E+02   4.918128E+02   4.899647E+02   4.881167E+02   4.862686E+02   4.844206E+02   4.825725E+02   4.807245E+02   4.788764E+02   4.770284E+02   4.751804E+02   4.733323E+02   4.714843E+02   4.696362E+02   4.677882E+02   4.659401E+02   4.640921E+02   4.622440E+02   4.603960E+02   4.585479E+02   4.566999E+02   4.548518E+02   4.530038E+02   4.511557E+02   4.493077E+02   4.481088E+02   4.475423E+02   4.469758E+02   4.464093E+02   4.450000E+02
   4.980000E+02   4.980000E+02   4.970286E+02   4.960571E+02   4.950857E+02   4.932432E+02   4.913957E+02   4.895481E+02   4.877006E+02   4.858531E+02   4.840056E+02   4.821580E+02   4.803105E+02   4.784630E+02   4.766154E+02   4.747679E+02   4.729203E+02   4.710728E+02   4.692253E+02   4.673777E+02   4.655302E+02   4.636827E+02   4.618351E+02   4.599876E+02   4.581401E+02   4.562926E+02   4.545622E+02   4.529864E+02   4.514106E+02   4.498349E+02   4.482592E+02   4.475709E+02   4.470044E+02   4.464379E+02   4.450000E+02
   4.980000E+02   4.980000E+02   4.970286E+02   4.960571E+02   4.945056E+02   4.926580E+02   4.908105E+02   4.889630E+02   4.871154E+02   4.852679E+02   4.834203E+02   4.815728E+02   4.797253E+02   4.778777E+02   4.760302E+02   4.741827E+02   4.723352E+02   4.704876E+02   4.686401E+02   4.667926E+02   4.649450E+02   4.633396E+02   4.617639E+02   4.601881E+02   4.586123E+02   4.570366E+02   4.554608E+02   4.538851E+02   4.523093E+02   4.507336E+02   4.491578E+02   4.475994E+02   4.470330E+02   4.464665E+02   4.450000E+02
   4.980000E+02   4.980000E+02   4.970286E+02   4.957679E+02   4.939203E+02   4.920728E+02   4.902253E+02   4.883778E+02   4.865302E+02   4.846827E+02   4.828352E+02   4.809876E+02   4.791401E+02   4.772926E+02   4.754450E+02   4.736928E+02   4.721170E+02   4.705413E+02   4.689655E+02   4.673898E+02   4.658140E+02   4.642383E+02   4.626625E+02   4.610867E+02   4.595110E+02   4.579352E+02   4.563595E+02   4.547837E+02   4.532079E+02   4.516322E+02   4.500564E+02   4.484807E+02   4.470615E+02   4.464951E+02   4.450000E+02