# LPF package for MODFLOW-2005 generated by Flopy 3.9.5
        53    -1E+30         0  
         1
         0
   1.000000E+00
         0
         0
INTERNAL               1  (35E15.6) -1 #hk layer 1                    
   1.596958E+00   1.508662E+00   1.428166E+00   1.355002E+00   1.288690E+00   1.228736E+00   1.174641E+00   1.125903E+00   1.082030E+00   1.042548E+00   1.007017E+00   1.000000E+00   1.000000E+00   1.000000E+00   1.000000E+00   1.000000E+00   1.000000E+00   1.000000E+00   1.000000E+00   1.000000E+00   1.000000E+00   1.000000E+00   1.000000E+00   1.000000E+00   1.000000E+00   1.000000E+00   1.000000E+00   1.000000E+00   1.000000E+00   1.000000E+00   1.000000E+00   1.000000E+00   1.000000E+00   1.000000E+00   1.000000E+00
   1.635814E+00   1.544760E+00   1.461783E+00   1.386410E+00   1.318148E+00   1.256486E+00   1.200900E+00   1.150861E+00   1.105846E+00   1.065352E+00   1.028909E+00   1.000000E+00   1.000000E+00   1.000000E+00   1.000000E+00   1.000000E+00   1.000000E+00   1.000000E+00   1.000000E+00   1.000000E+00   1.000000E+00   1.000000E+00   1.000000E+00   1.000000E+00   1.000000E+00   1.000000E+00   1.000000E+00   1.000000E+00   1.000000E+00   1.000000E+00   1.000000E+00   1.000000E+00   1.000000E+00   1.000000E+00   1.001440E+00
   1.683611E+00   1.589473E+00   1.503706E+00   1.425829E+00   1.355336E+00   1.291699E+00   1.234372E+00   1.182796E+00   1.136420E+00   1.094708E+00   1.057159E+00   1.023318E+00   1.000000E+00   1.000000E+00   1.000000E+00   1.000000E+00   1.000000E+00   1.000000E+00   1.000000E+00   1.000000E+00   1.000000E+00   1.000000E+00   1.000000E+00   1.000000E+00   1.000000E+00   1.000000E+00   1.000000E+00   1.000000E+00   1.000000E+00   1.000000E+00   1.000000E+00   1.000000E+00   1.000000E+00   1.000000E+00   1.021785E+00
   1.741435E+00   1.643870E+00   1.554978E+00   1.474273E+00   1.401239E+00   1.335331E+00   1.275977E+00   1.222595E+00   1.174601E+00   1.131429E+00   1.092548E+00   1.057476E+00   1.025789E+00   1.000000E+00   1.000000E+00   1.000000E+00   1.000000E+00   1.000000E+00   1.000000E+00   1.000000E+00   1.000000E+00   1.000000E+00   1.000000E+00   1.000000E+00   1.000000E+00   1.000000E+00   1.000000E+00   1.000000E+00   1.000000E+00   1.000000E+00   1.000000E+00   1.000000E+00   1.000000E+00   1.007175E+00   1.048089E+00
   1.810513E+00   1.709156E+00   1.616782E+00   1.532900E+00   1.456983E+00   1.388471E+00   1.326770E+00   1.271272E+00   1.221365E+00   1.176452E+00   1.135974E+00   1.099423E+00   1.066353E+00   1.036386E+00   1.009221E+00   1.000000E+00   1.000000E+00   1.000000E+00   1.000000E+00   1.000000E+00   1.000000E+00   1.000000E+00   1.000000E+00   1.000000E+00   1.000000E+00   1.000000E+00   1.000000E+00   1.000000E+00   1.000000E+00   1.000000E+00   1.000000E+00   1.000000E+00   1.001801E+00   1.038886E+00   1.081050E+00
   1.892222E+00   1.786686E+00   1.690448E+00   1.603010E+00   1.523837E+00   1.452352E+00   1.387943E+00   1.329978E+00   1.277818E+00   1.230841E+00   1.188461E+00   1.150144E+00   1.115424E+00   1.083909E+00   1.055280E+00   1.029299E+00   1.005800E+00   1.000000E+00   1.000000E+00   1.000000E+00   1.000000E+00   1.000000E+00   1.000000E+00   1.000000E+00   1.000000E+00   1.000000E+00   1.000000E+00   1.000000E+00   1.000000E+00   1.000000E+00   1.000000E+00   1.006698E+00   1.039744E+00   1.077970E+00   1.121459E+00
   1.988089E+00   1.877968E+00   1.777458E+00   1.686055E+00   1.603216E+00   1.528352E+00   1.460833E+00   1.400006E+00   1.345211E+00   1.295801E+00   1.251168E+00   1.210757E+00   1.174084E+00   1.140740E+00   1.110397E+00   1.082806E+00   1.057796E+00   1.035269E+00   1.015196E+00   1.000000E+00   1.000000E+00   1.000000E+00   1.000000E+00   1.000000E+00   1.000000E+00   1.000000E+00   1.000000E+00   1.000000E+00   1.000000E+00   1.000000E+00   1.023079E+00   1.051842E+00   1.085890E+00   1.125317E+00   1.170194E+00
   2.099802E+00   1.984667E+00   1.879449E+00   1.783642E+00   1.696693E+00   1.618003E+00   1.546929E+00   1.482801E+00   1.424941E+00   1.372684E+00   1.325404E+00   1.282529E+00   1.243558E+00   1.208070E+00   1.175725E+00   1.146269E+00   1.119524E+00   1.095392E+00   1.073842E+00   1.054913E+00   1.038700E+00   1.025359E+00   1.015091E+00   1.008141E+00   1.004785E+00   1.005322E+00   1.010057E+00   1.019287E+00   1.033289E+00   1.052305E+00   1.076536E+00   1.106140E+00   1.141237E+00   1.181912E+00   1.228232E+00
   2.229213E+00   2.108612E+00   1.998224E+00   1.897541E+00   1.806002E+00   1.723000E+00   1.647882E+00   1.579969E+00   1.518569E+00   1.463005E+00   1.412638E+00   1.366883E+00   1.325228E+00   1.287241E+00   1.252575E+00   1.220966E+00   1.192236E+00   1.166281E+00   1.143072E+00   1.122647E+00   1.105109E+00   1.090615E+00   1.079373E+00   1.071636E+00   1.067686E+00   1.067829E+00   1.072375E+00   1.081626E+00   1.095863E+00   1.115327E+00   1.140221E+00   1.170701E+00   1.206880E+00   1.248840E+00   1.296641E+00
   2.378354E+00   2.251811E+00   2.135763E+00   2.029698E+00   1.933052E+00   1.845212E+00   1.765522E+00   1.693294E+00   1.627833E+00   1.568456E+00   1.514515E+00   1.465420E+00   1.420652E+00   1.379771E+00   1.342423E+00   1.308342E+00   1.277342E+00   1.249320E+00   1.224244E+00   1.202155E+00   1.183154E+00   1.167403E+00   1.155114E+00   1.146541E+00   1.141970E+00   1.141709E+00   1.146070E+00   1.155355E+00   1.169845E+00   1.189779E+00   1.215358E+00   1.246734E+00   1.284019E+00   1.327288E+00   1.376597E+00
   2.549447E+00   2.416463E+00   2.294238E+00   2.182254E+00   2.079948E+00   1.986704E+00   1.901868E+00   1.824752E+00   1.754664E+00   1.690920E+00   1.632873E+00   1.579933E+00   1.531577E+00   1.487363E+00   1.446934E+00   1.410020E+00   1.376434E+00   1.346068E+00   1.318891E+00   1.294941E+00   1.274320E+00   1.257189E+00   1.243759E+00   1.234285E+00   1.229052E+00   1.228364E+00   1.232530E+00   1.241850E+00   1.256598E+00   1.277012E+00   1.303285E+00   1.335567E+00   1.373965E+00   1.418553E+00   1.469380E+00
   2.744922E+00   2.604978E+00   2.476030E+00   2.357560E+00   2.249004E+00   2.149753E+00   2.059156E+00   1.976536E+00   1.901207E+00   1.832496E+00   1.769763E+00   1.712422E+00   1.659956E+00   1.611925E+00   1.567972E+00   1.527825E+00   1.491296E+00   1.458274E+00   1.428727E+00   1.402690E+00   1.380263E+00   1.361603E+00   1.346918E+00   1.336457E+00   1.330499E+00   1.329342E+00   1.333287E+00   1.342624E+00   1.357620E+00   1.378505E+00   1.405465E+00   1.438646E+00   1.478151E+00   1.524049E+00   1.576388E+00
   2.967430E+00   2.819991E+00   2.683753E+00   2.558200E+00   2.442774E+00   2.336872E+00   2.239859E+00   2.151071E+00   2.069842E+00   1.995513E+00   1.927462E+00   1.865117E+00   1.807969E+00   1.755586E+00   1.707616E+00   1.663789E+00   1.623917E+00   1.587887E+00   1.555665E+00   1.527280E+00   1.502828E+00   1.482460E+00   1.466376E+00   1.454815E+00   1.448045E+00   1.446353E+00   1.450026E+00   1.459341E+00   1.474553E+00   1.495880E+00   1.523502E+00   1.557556E+00   1.598140E+00   1.645321E+00   1.699146E+00
   3.219859E+00   3.064380E+00   2.920268E+00   2.787012E+00   2.664062E+00   2.550831E+00   2.446703E+00   2.351040E+00   2.263200E+00   2.182552E+00   2.108498E+00   2.040487E+00   1.978029E+00   1.920706E+00   1.868174E+00   1.820170E+00   1.776506E+00   1.737070E+00   1.701823E+00   1.670789E+00   1.644057E+00   1.621767E+00   1.604106E+00   1.591300E+00   1.583602E+00   1.581279E+00   1.584601E+00   1.593829E+00   1.609199E+00   1.630917E+00   1.659150E+00   1.694026E+00   1.735639E+00   1.784052E+00   1.839310E+00
   3.505344E+00   3.341277E+00   3.188697E+00   3.047098E+00   2.915944E+00   2.794670E+00   2.682688E+00   2.579394E+00   2.484180E+00   2.396454E+00   2.315652E+00   2.241256E+00   2.172800E+00   2.109888E+00   2.052191E+00   1.999454E+00   1.951497E+00   1.908206E+00   1.869537E+00   1.835509E+00   1.806198E+00   1.781731E+00   1.762279E+00   1.748048E+00   1.739269E+00   1.736188E+00   1.739051E+00   1.748095E+00   1.763537E+00   1.785563E+00   1.814327E+00   1.849947E+00   1.892510E+00   1.942075E+00   1.998684E+00
   3.827263E+00   3.654070E+00   3.492425E+00   3.341831E+00   3.201771E+00   3.071708E+00   2.951091E+00   2.839359E+00   2.735954E+00   2.640331E+00   2.551974E+00   2.470404E+00   2.395195E+00   2.325979E+00   2.262450E+00   2.204365E+00   2.151553E+00   2.103901E+00   2.061363E+00   2.023945E+00   1.991711E+00   1.964770E+00   1.943270E+00   1.927395E+00   1.917346E+00   1.913343E+00   1.915601E+00   1.924331E+00   1.939724E+00   1.961944E+00   1.991127E+00   2.027378E+00   2.070775E+00   2.121375E+00   2.179218E+00
   4.189226E+00   4.006390E+00   3.835093E+00   3.674849E+00   3.525163E+00   3.385535E+00   3.255461E+00   3.134437E+00   3.021963E+00   2.917559E+00   2.820768E+00   2.731167E+00   2.648378E+00   2.572071E+00   2.501970E+00   2.437855E+00   2.379563E+00   2.326985E+00   2.280070E+00   2.238814E+00   2.203263E+00   2.173503E+00   2.149657E+00   2.131875E+00   2.120329E+00   2.115201E+00   2.116673E+00   2.124921E+00   2.140106E+00   2.162366E+00   2.191816E+00   2.228545E+00   2.272622E+00   2.324097E+00   2.383012E+00
   4.595050E+00   4.402088E+00   4.220573E+00   4.050029E+00   3.889988E+00   3.739995E+00   3.599604E+00   3.468379E+00   3.345899E+00   3.231761E+00   3.125583E+00   3.027015E+00   2.935740E+00   2.851479E+00   2.773994E+00   2.703093E+00   2.638626E+00   2.580493E+00   2.528635E+00   2.483036E+00   2.443722E+00   2.410750E+00   2.384212E+00   2.364220E+00   2.350906E+00   2.344410E+00   2.344873E+00   2.352432E+00   2.367210E+00   2.389314E+00   2.418835E+00   2.455843E+00   2.500395E+00   2.552537E+00   2.612312E+00
   5.048713E+00   4.845190E+00   4.652924E+00   4.471445E+00   4.300319E+00   4.139143E+00   3.987538E+00   3.845156E+00   3.711669E+00   3.586772E+00   3.470179E+00   3.361628E+00   3.260879E+00   3.167718E+00   3.081957E+00   3.003438E+00   2.932033E+00   2.867647E+00   2.810217E+00   2.759714E+00   2.716136E+00   2.679510E+00   2.649887E+00   2.627337E+00   2.611943E+00   2.603795E+00   2.602986E+00   2.609604E+00   2.623731E+00   2.645438E+00   2.674784E+00   2.711819E+00   2.756589E+00   2.809133E+00   2.869495E+00
   5.554282E+00   5.339824E+00   5.136318E+00   4.943300E+00   4.760368E+00   4.587177E+00   4.423434E+00   4.268892E+00   4.123338E+00   3.986586E+00   3.858470E+00   3.738838E+00   3.627545E+00   3.524457E+00   3.429448E+00   3.342404E+00   3.263223E+00   3.191821E+00   3.128129E+00   3.072101E+00   3.023705E+00   2.982932E+00   2.949786E+00   2.924284E+00   2.906455E+00   2.896329E+00   2.893941E+00   2.899325E+00   2.912511E+00   2.933527E+00   2.962399E+00   2.999154E+00   3.043821E+00   3.096439E+00   3.157053E+00
   6.115825E+00   5.890131E+00   5.674954E+00   5.469831E+00   5.274390E+00   5.088353E+00   4.911525E+00   4.743780E+00   4.585044E+00   4.435278E+00   4.294459E+00   4.162569E+00   4.039582E+00   3.925461E+00   3.820156E+00   3.723607E+00   3.635744E+00   3.556496E+00   3.485790E+00   3.423559E+00   3.369740E+00   3.324277E+00   3.287123E+00   3.258234E+00   3.237571E+00   3.225098E+00   3.220782E+00   3.224590E+00   3.236495E+00   3.256475E+00   3.284518E+00   3.320622E+00   3.364805E+00   3.417100E+00   3.477563E+00
   6.737292E+00   6.500140E+00   6.272928E+00   6.055182E+00   5.846560E+00   5.646855E+00   5.455986E+00   5.273968E+00   5.100894E+00   4.936899E+00   4.782135E+00   4.636744E+00   4.500843E+00   4.374513E+00   4.257795E+00   4.150694E+00   4.053180E+00   3.965197E+00   3.886669E+00   3.817505E+00   3.757606E+00   3.706865E+00   3.665173E+00   3.632416E+00   3.608479E+00   3.593248E+00   3.586608E+00   3.588454E+00   3.598689E+00   3.617233E+00   3.644031E+00   3.679052E+00   3.722299E+00   3.773807E+00   3.833644E+00
   7.422378E+00   7.173624E+00   6.934083E+00   6.703253E+00   6.480819E+00   6.266650E+00   6.060789E+00   5.863420E+00   5.674827E+00   5.495354E+00   5.325359E+00   5.165176E+00   5.015090E+00   4.875322E+00   4.746022E+00   4.627270E+00   4.519083E+00   4.421426E+00   4.334218E+00   4.257344E+00   4.190663E+00   4.134011E+00   4.087208E+00   4.050061E+00   4.022367E+00   4.003922E+00   3.994520E+00   3.993968E+00   4.002090E+00   4.018744E+00   4.043821E+00   4.077263E+00   4.119058E+00   4.169246E+00   4.227913E+00
   8.174370E+00   7.913938E+00   7.661838E+00   7.417526E+00   7.180700E+00   6.951310E+00   6.729535E+00   6.515749E+00   6.310461E+00   6.114257E+00   5.927732E+00   5.751447E+00   5.585883E+00   5.431421E+00   5.288339E+00   5.156804E+00   5.036888E+00   4.928580E+00   4.831797E+00   4.746397E+00   4.672192E+00   4.608953E+00   4.556425E+00   4.514322E+00   4.482346E+00   4.460186E+00   4.447536E+00   4.444101E+00   4.449618E+00   4.463870E+00   4.486695E+00   4.518000E+00   4.557764E+00   4.606037E+00   4.662931E+00
   8.995994E+00   8.723856E+00   8.459022E+00   8.200883E+00   7.949142E+00   7.703828E+00   7.465270E+00   7.234050E+00   7.010934E+00   6.796778E+00   6.592456E+00   6.398780E+00   6.216457E+00   6.046055E+00   5.887991E+00   5.742536E+00   5.609824E+00   5.489872E+00   5.382594E+00   5.287822E+00   5.205317E+00   5.134781E+00   5.075872E+00   5.028206E+00   4.991374E+00   4.964953E+00   4.948518E+00   4.941665E+00   4.944032E+00   4.955317E+00   4.975302E+00   5.003860E+00   5.040962E+00   5.086674E+00   5.141143E+00
   9.889279E+00   9.605419E+00   9.327703E+00   9.055441E+00   8.788323E+00   8.526455E+00   8.270323E+00   8.020740E+00   7.778746E+00   7.545506E+00   7.322196E+00   7.109915E+00   6.909618E+00   6.722080E+00   6.547877E+00   6.387392E+00   6.240832E+00   6.108246E+00   5.989550E+00   5.884544E+00   5.792937E+00   5.714360E+00   5.648374E+00   5.594491E+00   5.552184E+00   5.520901E+00   5.500093E+00   5.489234E+00   5.487852E+00   5.495558E+00   5.512069E+00   5.537226E+00   5.570996E+00   5.613467E+00   5.664831E+00
   1.085547E+01   1.055984E+01   1.026909E+01   9.982430E+00   9.699531E+00   9.420564E+00   9.146177E+00   8.877424E+00   8.615645E+00   8.362329E+00   8.118982E+00   7.887012E+00   7.667645E+00   7.461878E+00   7.270463E+00   7.093907E+00   6.932496E+00   6.786317E+00   6.655288E+00   6.539185E+00   6.437660E+00   6.350266E+00   6.276471E+00   6.215671E+00   6.167213E+00   6.130414E+00   6.104589E+00   6.089079E+00   6.083300E+00   6.086766E+00   6.099133E+00   6.120205E+00   6.149953E+00   6.188492E+00   6.236065E+00
   1.189498E+01   1.158745E+01   1.128347E+01   1.098215E+01   1.068311E+01   1.038660E+01   1.009341E+01   9.804852E+00   9.522566E+00   9.248383E+00   8.984149E+00   8.731596E+00   8.492236E+00   8.267303E+00   8.057734E+00   7.864172E+00   7.686987E+00   7.526312E+00   7.382073E+00   7.254020E+00   7.141753E+00   7.044747E+00   6.962370E+00   6.893905E+00   6.838569E+00   6.795538E+00   6.763988E+00   6.743130E+00   6.732255E+00   6.730787E+00   6.738311E+00   6.754606E+00   6.779643E+00   6.813571E+00   6.856691E+00
   1.300000E+01   1.268779E+01   1.237031E+01   1.205402E+01   1.173853E+01   1.142411E+01   1.111174E+01   1.080293E+01   1.049965E+01   1.020405E+01   9.918335E+00   9.644550E+00   9.384501E+00   9.139667E+00   8.911176E+00   8.699813E+00   8.506044E+00   8.330054E+00   8.171782E+00   8.030956E+00   7.907127E+00   7.799696E+00   7.707934E+00   7.631008E+00   7.568006E+00   7.517969E+00   7.479930E+00   7.452969E+00   7.436260E+00   7.429131E+00   7.431107E+00   7.441937E+00   7.461598E+00   7.490278E+00   7.528334E+00
   1.300000E+01   1.300000E+01   1.300000E+01   1.300000E+01   1.286452E+01   1.253195E+01   1.220015E+01   1.187088E+01   1.154636E+01   1.122909E+01   1.092157E+01   1.062618E+01   1.034501E+01   1.007977E+01   9.831793E+00   9.602010E+00   9.390987E+00   9.198969E+00   9.025912E+00   8.871533E+00   8.735342E+00   8.616666E+00   8.514688E+00   8.428464E+00   8.356958E+00   8.299082E+00   8.253736E+00   8.219872E+00   8.196555E+00   8.183025E+00   8.178751E+00   8.183455E+00   8.197124E+00   8.219978E+00   8.252435E+00
   1.300000E+01   1.300000E+01   1.300000E+01   1.300000E+01   1.300000E+01   1.300000E+01   1.300000E+01   1.300000E+01   1.266168E+01   1.232274E+01   1.199341E+01   1.167633E+01   1.137388E+01   1.108799E+01   1.082019E+01   1.057155E+01   1.034276E+01   1.013412E+01   9.945619E+00   9.776966E+00   9.627639E+00   9.496905E+00   9.383865E+00   9.287476E+00   9.206590E+00   9.139997E+00   9.086482E+00   9.044882E+00   9.014165E+00   8.993495E+00   8.982287E+00   8.980248E+00   8.987369E+00   9.003903E+00   9.030319E+00
   1.300000E+01   1.300000E+01   1.300000E+01   1.300000E+01   1.300000E+01   1.300000E+01   1.300000E+01   1.300000E+01   1.300000E+01   1.300000E+01   1.300000E+01   1.279457E+01   1.247094E+01   1.216439E+01   1.187665E+01   1.160893E+01   1.136201E+01   1.113629E+01   1.093178E+01   1.074820E+01   1.058501E+01   1.044143E+01   1.031648E+01   1.020905E+01   1.011788E+01   1.004167E+01   9.979103E+00   9.928921E+00   9.890010E+00   9.861474E+00   9.842690E+00   9.833344E+00   9.833436E+00   9.843245E+00   9.863279E+00
   1.300000E+01   1.300000E+01   1.300000E+01   1.300000E+01   1.300000E+01   1.300000E+01   1.300000E+01   1.300000E+01   1.300000E+01   1.300000E+01   1.300000E+01   1.300000E+01   1.300000E+01   1.300000E+01   1.300000E+01   1.271443E+01   1.244919E+01   1.220605E+01   1.198508E+01   1.178601E+01   1.160829E+01   1.145110E+01   1.131343E+01   1.119408E+01   1.109174E+01   1.100501E+01   1.093251E+01   1.087290E+01   1.082503E+01   1.078794E+01   1.076098E+01   1.074383E+01   1.073649E+01   1.073926E+01   1.075267E+01
   1.300000E+01   1.300000E+01   1.300000E+01   1.300000E+01   1.300000E+01   1.300000E+01   1.300000E+01   1.300000E+01   1.300000E+01   1.300000E+01   1.300000E+01   1.300000E+01   1.300000E+01   1.300000E+01   1.300000E+01   1.300000E+01   1.300000E+01   1.300000E+01   1.300000E+01   1.289109E+01   1.269823E+01   1.252674E+01   1.237557E+01   1.224347E+01   1.212909E+01   1.203097E+01   1.194769E+01   1.187786E+01   1.182029E+01   1.177401E+01   1.173834E+01   1.171296E+01   1.169786E+01   1.169336E+01   1.170000E+01
   1.300000E+01   1.300000E+01   1.300000E+01   1.300000E+01   1.300000E+01   1.300000E+01   1.300000E+01   1.300000E+01   1.300000E+01   1.300000E+01   1.300000E+01   1.300000E+01   1.300000E+01   1.300000E+01   1.300000E+01   1.300000E+01   1.300000E+01   1.300000E+01   1.300000E+01   1.300000E+01   1.300000E+01   1.300000E+01   1.300000E+01   1.300000E+01   1.300000E+01   1.300000E+01   1.300000E+01   1.294503E+01   1.287710E+01   1.282105E+01   1.277621E+01   1.274223E+01   1.271912E+01   1.270718E+01   1.270698E+01
INTERNAL               1  (35E15.6) -1 #vka1                          
   1.596958E+00   1.508662E+00   1.428166E+00   1.355002E+00   1.288690E+00   1.228736E+00   1.174641E+00   1.125903E+00   1.082030E+00   1.042548E+00   1.007017E+00   1.000000E+00   1.000000E+00   1.000000E+00   1.000000E+00   1.000000E+00   1.000000E+00   1.000000E+00   1.000000E+00   1.000000E+00   1.000000E+00   1.000000E+00   1.000000E+00   1.000000E+00   1.000000E+00   1.000000E+00   1.000000E+00   1.000000E+00   1.000000E+00   1.000000E+00   1.000000E+00   1.000000E+00   1.000000E+00   1.000000E+00   1.000000E+00
   1.635814E+00   1.544760E+00   1.461783E+00   1.386410E+00   1.318148E+00   1.256486E+00   1.200900E+00   1.150861E+00   1.105846E+00   1.065352E+00   1.028909E+00   1.000000E+00   1.000000E+00   1.000000E+00   1.000000E+00   1.000000E+00   1.000000E+00   1.000000E+00   1.000000E+00   1.000000E+00   1.000000E+00   1.000000E+00   1.000000E+00   1.000000E+00   1.000000E+00   1.000000E+00   1.000000E+00   1.000000E+00   1.000000E+00   1.000000E+00   1.000000E+00   1.000000E+00   1.000000E+00   1.000000E+00   1.001440E+00
   1.683611E+00   1.589473E+00   1.503706E+00   1.425829E+00   1.355336E+00   1.291699E+00   1.234372E+00   1.182796E+00   1.136420E+00   1.094708E+00   1.057159E+00   1.023318E+00   1.000000E+00   1.000000E+00   1.000000E+00   1.000000E+00   1.000000E+00   1.000000E+00   1.000000E+00   1.000000E+00   1.000000E+00   1.000000E+00   1.000000E+00   1.000000E+00   1.000000E+00   1.000000E+00   1.000000E+00   1.000000E+00   1.000000E+00   1.000000E+00   1.000000E+00   1.000000E+00   1.000000E+00   1.000000E+00   1.021785E+00
   1.741435E+00   1.643870E+00   1.554978E+00   1.474273E+00   1.401239E+00   1.335331E+00   1.275977E+00   1.222595E+00   1.174601E+00   1.131429E+00   1.092548E+00   1.057476E+00   1.025789E+00   1.000000E+00   1.000000E+00   1.000000E+00   1.000000E+00   1.000000E+00   1.000000E+00   1.000000E+00   1.000000E+00   1.000000E+00   1.000000E+00   1.000000E+00   1.000000E+00   1.000000E+00   1.000000E+00   1.000000E+00   1.000000E+00   1.000000E+00   1.000000E+00   1.000000E+00   1.000000E+00   1.007175E+00   1.048089E+00
   1.810513E+00   1.709156E+00   1.616782E+00   1.532900E+00   1.456983E+00   1.388471E+00   1.326770E+00   1.271272E+00   1.221365E+00   1.176452E+00   1.135974E+00   1.099423E+00   1.066353E+00   1.036386E+00   1.009221E+00   1.000000E+00   1.000000E+00   1.000000E+00   1.000000E+00   1.000000E+00   1.000000E+00   1.000000E+00   1.000000E+00   1.000000E+00   1.000000E+00   1.000000E+00   1.000000E+00   1.000000E+00   1.000000E+00   1.000000E+00   1.000000E+00   1.000000E+00   1.001801E+00   1.038886E+00   1.081050E+00
   1.892222E+00   1.786686E+00   1.690448E+00   1.603010E+00   1.523837E+00   1.452352E+00   1.387943E+00   1.329978E+00   1.277818E+00   1.230841E+00   1.188461E+00   1.150144E+00   1.115424E+00   1.083909E+00   1.055280E+00   1.029299E+00   1.005800E+00   1.000000E+00   1.000000E+00   1.000000E+00   1.000000E+00   1.000000E+00   1.000000E+00   1.000000E+00   1.000000E+00   1.000000E+00   1.000000E+00   1.000000E+00   1.000000E+00   1.000000E+00   1.000000E+00   1.006698E+00   1.039744E+00   1.077970E+00   1.121459E+00
   1.988089E+00   1.877968E+00   1.777458E+00   1.686055E+00   1.603216E+00   1.528352E+00   1.460833E+00   1.400006E+00   1.345211E+00   1.295801E+00   1.251168E+00   1.210757E+00   1.174084E+00   1.140740E+00   1.110397E+00   1.082806E+00   1.057796E+00   1.035269E+00   1.015196E+00   1.000000E+00   1.000000E+00   1.000000E+00   1.000000E+00   1.000000E+00   1.000000E+00   1.000000E+00   1.000000E+00   1.000000E+00   1.000000E+00   1.000000E+00   1.023079E+00   1.051842E+00   1.085890E+00   1.125317E+00   1.170194E+00
   2.099802E+00   1.984667E+00   1.879449E+00   1.783642E+00   1.696693E+00   1.618003E+00   1.546929E+00   1.482801E+00   1.424941E+00   1.372684E+00   1.325404E+00   1.282529E+00   1.243558E+00   1.208070E+00   1.175725E+00   1.146269E+00   1.119524E+00   1.095392E+00   1.073842E+00   1.054913E+00   1.038700E+00   1.025359E+00   1.015091E+00   1.008141E+00   1.004785E+00   1.005322E+00   1.010057E+00   1.019287E+00   1.033289E+00   1.052305E+00   1.076536E+00   1.106140E+00   1.141237E+00   1.181912E+00   1.228232E+00
   2.229213E+00   2.108612E+00   1.998224E+00   1.897541E+00   1.806002E+00   1.723000E+00   1.647882E+00   1.579969E+00   1.518569E+00   1.463005E+00   1.412638E+00   1.366883E+00   1.325228E+00   1.287241E+00   1.252575E+00   1.220966E+00   1.192236E+00   1.166281E+00   1.143072E+00   1.122647E+00   1.105109E+00   1.090615E+00   1.079373E+00   1.071636E+00   1.067686E+00   1.067829E+00   1.072375E+00   1.081626E+00   1.095863E+00   1.115327E+00   1.140221E+00   1.170701E+00   1.206880E+00   1.248840E+00   1.296641E+00
   2.378354E+00   2.251811E+00   2.135763E+00   2.029698E+00   1.933052E+00   1.845212E+00   1.765522E+00   1.693294E+00   1.627833E+00   1.568456E+00   1.514515E+00   1.465420E+00   1.420652E+00   1.379771E+00   1.342423E+00   1.308342E+00   1.277342E+00   1.249320E+00   1.224244E+00   1.202155E+00   1.183154E+00   1.167403E+00   1.155114E+00   1.146541E+00   1.141970E+00   1.141709E+00   1.146070E+00   1.155355E+00   1.169845E+00   1.189779E+00   1.215358E+00   1.246734E+00   1.284019E+00   1.327288E+00   1.376597E+00
   2.549447E+00   2.416463E+00   2.294238E+00   2.182254E+00   2.079948E+00   1.986704E+00   1.901868E+00   1.824752E+00   1.754664E+00   1.690920E+00   1.632873E+00   1.579933E+00   1.531577E+00   1.487363E+00   1.446934E+00   1.410020E+00   1.376434E+00   1.346068E+00   1.318891E+00   1.294941E+00   1.274320E+00   1.257189E+00   1.243759E+00   1.234285E+00   1.229052E+00   1.228364E+00   1.232530E+00   1.241850E+00   1.256598E+00   1.277012E+00   1.303285E+00   1.335567E+00   1.373965E+00   1.418553E+00   1.469380E+00
   2.744922E+00   2.604978E+00   2.476030E+00   2.357560E+00   2.249004E+00   2.149753E+00   2.059156E+00   1.976536E+00   1.901207E+00   1.832496E+00   1.769763E+00   1.712422E+00   1.659956E+00   1.611925E+00   1.567972E+00   1.527825E+00   1.491296E+00   1.458274E+00   1.428727E+00   1.402690E+00   1.380263E+00   1.361603E+00   1.346918E+00   1.336457E+00   1.330499E+00   1.329342E+00   1.333287E+00   1.342624E+00   1.357620E+00   1.378505E+00   1.405465E+00   1.438646E+00   1.478151E+00   1.524049E+00   1.576388E+00
   2.967430E+00   2.819991E+00   2.683753E+00   2.558200E+00   2.442774E+00   2.336872E+00   2.239859E+00   2.151071E+00   2.069842E+00   1.995513E+00   1.927462E+00   1.865117E+00   1.807969E+00   1.755586E+00   1.707616E+00   1.663789E+00   1.623917E+00   1.587887E+00   1.555665E+00   1.527280E+00   1.502828E+00   1.482460E+00   1.466376E+00   1.454815E+00   1.448045E+00   1.446353E+00   1.450026E+00   1.459341E+00   1.474553E+00   1.495880E+00   1.523502E+00   1.557556E+00   1.598140E+00   1.645321E+00   1.699146E+00
   3.219859E+00   3.064380E+00   2.920268E+00   2.787012E+00   2.664062E+00   2.550831E+00   2.446703E+00   2.351040E+00   2.263200E+00   2.182552E+00   2.108498E+00   2.040487E+00   1.978029E+00   1.920706E+00   1.868174E+00   1.820170E+00   1.776506E+00   1.737070E+00   1.701823E+00   1.670789E+00   1.644057E+00   1.621767E+00   1.604106E+00   1.591300E+00   1.583602E+00   1.581279E+00   1.584601E+00   1.593829E+00   1.609199E+00   1.630917E+00   1.659150E+00   1.694026E+00   1.735639E+00   1.784052E+00   1.839310E+00
   3.505344E+00   3.341277E+00   3.188697E+00   3.047098E+00   2.915944E+00   2.794670E+00   2.682688E+00   2.579394E+00   2.484180E+00   2.396454E+00   2.315652E+00   2.241256E+00   2.172800E+00   2.109888E+00   2.052191E+00   1.999454E+00   1.951497E+00   1.908206E+00   1.869537E+00   1.835509E+00   1.806198E+00   1.781731E+00   1.762279E+00   1.748048E+00   1.739269E+00   1.736188E+00   1.739051E+00   1.748095E+00   1.763537E+00   1.785563E+00   1.814327E+00   1.849947E+00   1.892510E+00   1.942075E+00   1.998684E+00
   3.827263E+00   3.654070E+00   3.492425E+00   3.341831E+00   3.201771E+00   3.071708E+00   2.951091E+00   2.839359E+00   2.735954E+00   2.640331E+00   2.551974E+00   2.470404E+00   2.395195E+00   2.325979E+00   2.262450E+00   2.204365E+00   2.151553E+00   2.103901E+00   2.061363E+00   2.023945E+00   1.991711E+00   1.964770E+00   1.943270E+00   1.927395E+00   1.917346E+00   1.913343E+00   1.915601E+00   1.924331E+00   1.939724E+00   1.961944E+00   1.991127E+00   2.027378E+00   2.070775E+00   2.121375E+00   2.179218E+00
   4.189226E+00   4.006390E+00   3.835093E+00   3.674849E+00   3.525163E+00   3.385535E+00   3.255461E+00   3.134437E+00   3.021963E+00   2.917559E+00   2.820768E+00   2.731167E+00   2.648378E+00   2.572071E+00   2.501970E+00   2.437855E+00   2.379563E+00   2.326985E+00   2.280070E+00   2.238814E+00   2.203263E+00   2.173503E+00   2.149657E+00   2.131875E+00   2.120329E+00   2.115201E+00   2.116673E+00   2.124921E+00   2.140106E+00   2.162366E+00   2.191816E+00   2.228545E+00   2.272622E+00   2.324097E+00   2.383012E+00
   4.595050E+00   4.402088E+00   4.220573E+00   4.050029E+00   3.889988E+00   3.739995E+00   3.599604E+00   3.468379E+00   3.345899E+00   3.231761E+00   3.125583E+00   3.027015E+00   2.935740E+00   2.851479E+00   2.773994E+00   2.703093E+00   2.638626E+00   2.580493E+00   2.528635E+00   2.483036E+00   2.443722E+00   2.410750E+00   2.384212E+00   2.364220E+00   2.350906E+00   2.344410E+00   2.344873E+00   2.352432E+00   2.367210E+00   2.389314E+00   2.418835E+00   2.455843E+00   2.500395E+00   2.552537E+00   2.612312E+00
   5.048713E+00   4.845190E+00   4.652924E+00   4.471445E+00   4.300319E+00   4.139143E+00   3.987538E+00   3.845156E+00   3.711669E+00   3.586772E+00   3.470179E+00   3.361628E+00   3.260879E+00   3.167718E+00   3.081957E+00   3.003438E+00   2.932033E+00   2.867647E+00   2.810217E+00   2.759714E+00   2.716136E+00   2.679510E+00   2.649887E+00   2.627337E+00   2.611943E+00   2.603795E+00   2.602986E+00   2.609604E+00   2.623731E+00   2.645438E+00   2.674784E+00   2.711819E+00   2.756589E+00   2.809133E+00   2.869495E+00
   5.554282E+00   5.339824E+00   5.136318E+00   4.943300E+00   4.760368E+00   4.587177E+00   4.423434E+00   4.268892E+00   4.123338E+00   3.986586E+00   3.858470E+00   3.738838E+00   3.627545E+00   3.524457E+00   3.429448E+00   3.342404E+00   3.263223E+00   3.191821E+00   3.128129E+00   3.072101E+00   3.023705E+00   2.982932E+00   2.949786E+00   2.924284E+00   2.906455E+00   2.896329E+00   2.893941E+00   2.899325E+00   2.912511E+00   2.933527E+00   2.962399E+00   2.999154E+00   3.043821E+00   3.096439E+00   3.157053E+00
   6.115825E+00   5.890131E+00   5.674954E+00   5.469831E+00   5.274390E+00   5.088353E+00   4.911525E+00   4.743780E+00   4.585044E+00   4.435278E+00   4.294459E+00   4.162569E+00   4.039582E+00   3.925461E+00   3.820156E+00   3.723607E+00   3.635744E+00   3.556496E+00   3.485790E+00   3.423559E+00   3.369740E+00   3.324277E+00   3.287123E+00   3.258234E+00   3.237571E+00   3.225098E+00   3.220782E+00   3.224590E+00   3.236495E+00   3.256475E+00   3.284518E+00   3.320622E+00   3.364805E+00   3.417100E+00   3.477563E+00