# WEL package for MODFLOW-2005 generated by Flopy 3.9.5
         3        53 
         3         0 # stress period 1
         1        22         8       -348.0793
         1        11        18      -5231.0376
         1        21        18      -5231.0376
