# DIS package for MODFLOW-2005 generated by Flopy 3.9.3
         1        20        21         1         4         2
  0
CONSTANT    4.761905E+01                           #delr                          
CONSTANT    5.000000E+01                           #delc                          
INTERNAL               1  (21E15.6) -1 #model_top                     
   2.500000E+01   2.450000E+01   2.400000E+01   2.350000E+01   2.300000E+01   2.250000E+01   2.200000E+01   2.150000E+01   2.100000E+01   2.050000E+01   2.000000E+01   2.050000E+01   2.100000E+01   2.150000E+01   2.200000E+01   2.250000E+01   2.300000E+01   2.350000E+01   2.400000E+01   2.450000E+01   2.500000E+01
   2.450000E+01   2.400000E+01   2.350000E+01   2.300000E+01   2.250000E+01   2.200000E+01   2.150000E+01   2.100000E+01   2.050000E+01   2.000000E+01   1.950000E+01   2.000000E+01   2.050000E+01   2.100000E+01   2.150000E+01   2.200000E+01   2.250000E+01   2.300000E+01   2.350000E+01   2.400000E+01   2.450000E+01
   2.400000E+01   2.350000E+01   2.300000E+01   2.250000E+01   2.200000E+01   2.150000E+01   2.100000E+01   2.050000E+01   2.000000E+01   1.950000E+01   1.900000E+01   1.950000E+01   2.000000E+01   2.050000E+01   2.100000E+01   2.150000E+01   2.200000E+01   2.250000E+01   2.300000E+01   2.350000E+01   2.400000E+01
   2.350000E+01   2.300000E+01   2.250000E+01   2.200000E+01   2.150000E+01   2.100000E+01   2.050000E+01   2.000000E+01   1.950000E+01   1.900000E+01   1.850000E+01   1.900000E+01   1.950000E+01   2.000000E+01   2.050000E+01   2.100000E+01   2.150000E+01   2.200000E+01   2.250000E+01   2.300000E+01   2.350000E+01
   2.300000E+01   2.250000E+01   2.200000E+01   2.150000E+01   2.100000E+01   2.050000E+01   2.000000E+01   1.950000E+01   1.900000E+01   1.850000E+01   1.800000E+01   1.850000E+01   1.900000E+01   1.950000E+01   2.000000E+01   2.050000E+01   2.100000E+01   2.150000E+01   2.200000E+01   2.250000E+01   2.300000E+01
   2.250000E+01   2.200000E+01   2.150000E+01   2.100000E+01   2.050000E+01   2.000000E+01   1.950000E+01   1.900000E+01   1.850000E+01   1.800000E+01   1.750000E+01   1.800000E+01   1.850000E+01   1.900000E+01   1.950000E+01   2.000000E+01   2.050000E+01   2.100000E+01   2.150000E+01   2.200000E+01   2.250000E+01
   2.200000E+01   2.150000E+01   2.100000E+01   2.050000E+01   2.000000E+01   1.950000E+01   1.900000E+01   1.850000E+01   1.800000E+01   1.750000E+01   1.700000E+01   1.750000E+01   1.800000E+01   1.850000E+01   1.900000E+01   1.950000E+01   2.000000E+01   2.050000E+01   2.100000E+01   2.150000E+01   2.200000E+01
   2.150000E+01   2.100000E+01   2.050000E+01   2.000000E+01   1.950000E+01   1.900000E+01   1.850000E+01   1.800000E+01   1.750000E+01   1.700000E+01   1.650000E+01   1.700000E+01   1.750000E+01   1.800000E+01   1.850000E+01   1.900000E+01   1.950000E+01   2.000000E+01   2.050000E+01   2.100000E+01   2.150000E+01
   2.100000E+01   2.050000E+01   2.000000E+01   1.950000E+01   1.900000E+01   1.850000E+01   1.800000E+01   1.750000E+01   1.700000E+01   1.650000E+01   1.600000E+01   1.650000E+01   1.700000E+01   1.750000E+01   1.800000E+01   1.850000E+01   1.900000E+01   1.950000E+01   2.000000E+01   2.050000E+01   2.100000E+01
   2.050000E+01   2.000000E+01   1.950000E+01   1.900000E+01   1.850000E+01   1.800000E+01   1.750000E+01   1.700000E+01   1.650000E+01   1.600000E+01   1.550000E+01   1.600000E+01   1.650000E+01   1.700000E+01   1.750000E+01   1.800000E+01   1.850000E+01   1.900000E+01   1.950000E+01   2.000000E+01   2.050000E+01
   2.000000E+01   1.950000E+01   1.900000E+01   1.850000E+01   1.800000E+01   1.750000E+01   1.700000E+01   1.650000E+01   1.600000E+01   1.550000E+01   1.500000E+01   1.550000E+01   1.600000E+01   1.650000E+01   1.700000E+01   1.750000E+01   1.800000E+01   1.850000E+01   1.900000E+01   1.950000E+01   2.000000E+01
   1.950000E+01   1.900000E+01   1.850000E+01   1.800000E+01   1.750000E+01   1.700000E+01   1.650000E+01   1.600000E+01   1.550000E+01   1.500000E+01   1.450000E+01   1.500000E+01   1.550000E+01   1.600000E+01   1.650000E+01   1.700000E+01   1.750000E+01   1.800000E+01   1.850000E+01   1.900000E+01   1.950000E+01
   1.900000E+01   1.850000E+01   1.800000E+01   1.750000E+01   1.700000E+01   1.650000E+01   1.600000E+01   1.550000E+01   1.500000E+01   1.450000E+01   1.400000E+01   1.450000E+01   1.500000E+01   1.550000E+01   1.600000E+01   1.650000E+01   1.700000E+01   1.750000E+01   1.800000E+01   1.850000E+01   1.900000E+01
   1.850000E+01   1.800000E+01   1.750000E+01   1.700000E+01   1.650000E+01   1.600000E+01   1.550000E+01   1.500000E+01   1.450000E+01   1.400000E+01   1.350000E+01   1.400000E+01   1.450000E+01   1.500000E+01   1.550000E+01   1.600000E+01   1.650000E+01   1.700000E+01   1.750000E+01   1.800000E+01   1.850000E+01
   1.800000E+01   1.750000E+01   1.700000E+01   1.650000E+01   1.600000E+01   1.550000E+01   1.500000E+01   1.450000E+01   1.400000E+01   1.350000E+01   1.300000E+01   1.350000E+01   1.400000E+01   1.450000E+01   1.500000E+01   1.550000E+01   1.600000E+01   1.650000E+01   1.700000E+01   1.750000E+01   1.800000E+01
   1.750000E+01   1.700000E+01   1.650000E+01   1.600000E+01   1.550000E+01   1.500000E+01   1.450000E+01   1.400000E+01   1.350000E+01   1.300000E+01   1.250000E+01   1.300000E+01   1.350000E+01   1.400000E+01   1.450000E+01   1.500000E+01   1.550000E+01   1.600000E+01   1.650000E+01   1.700000E+01   1.750000E+01
   1.700000E+01   1.650000E+01   1.600000E+01   1.550000E+01   1.500000E+01   1.450000E+01   1.400000E+01   1.350000E+01   1.300000E+01   1.250000E+01   1.200000E+01   1.250000E+01   1.300000E+01   1.350000E+01   1.400000E+01   1.450000E+01   1.500000E+01   1.550000E+01   1.600000E+01   1.650000E+01   1.700000E+01
   1.650000E+01   1.600000E+01   1.550000E+01   1.500000E+01   1.450000E+01   1.400000E+01   1.350000E+01   1.300000E+01   1.250000E+01   1.200000E+01   1.150000E+01   1.200000E+01   1.250000E+01   1.300000E+01   1.350000E+01   1.400000E+01   1.450000E+01   1.500000E+01   1.550000E+01   1.600000E+01   1.650000E+01
   1.600000E+01   1.550000E+01   1.500000E+01   1.450000E+01   1.400000E+01   1.350000E+01   1.300000E+01   1.250000E+01   1.200000E+01   1.150000E+01   1.100000E+01   1.150000E+01   1.200000E+01   1.250000E+01   1.300000E+01   1.350000E+01   1.400000E+01   1.450000E+01   1.500000E+01   1.550000E+01   1.600000E+01
   1.550000E+01   1.500000E+01   1.450000E+01   1.400000E+01   1.350000E+01   1.300000E+01   1.250000E+01   1.200000E+01   1.150000E+01   1.100000E+01   1.050000E+01   1.100000E+01   1.150000E+01   1.200000E+01   1.250000E+01   1.300000E+01   1.350000E+01   1.400000E+01   1.450000E+01   1.500000E+01   1.550000E+01
CONSTANT    0.000000E+00                           #botm layer 1                  
      1.000000             1  1.000000  SS
