# SFR package for MODFLOW-2005 generated by Flopy 3.9.3
-20 1 0 0 86400.00000000 0.00001000 53 81 1 0 
1 1 11 1 1 50.0 19.0 0.01 1.0 0.1
1 2 11 1 2 50.0 18.5 0.01 1.0 0.1
1 3 11 1 3 50.0 18.0 0.01 1.0 0.1
1 4 11 1 4 50.0 17.5 0.01 1.0 0.1
1 5 11 1 5 50.0 17.0 0.01 1.0 0.1
1 6 11 1 6 50.0 16.5 0.01 1.0 0.1
1 7 11 1 7 50.0 16.0 0.01 1.0 0.1
1 8 11 1 8 50.0 15.5 0.01 1.0 0.1
1 9 11 1 9 50.0 15.0 0.01 1.0 0.1
1 10 11 1 10 50.0 14.5 0.01 1.0 0.1
1 11 11 1 11 50.0 14.0 0.01 1.0 0.1
1 12 11 1 12 50.0 13.5 0.01 1.0 0.1
1 13 11 1 13 50.0 13.0 0.01 1.0 0.1
1 14 11 1 14 50.0 12.5 0.01 1.0 0.1
1 15 11 1 15 50.0 12.0 0.01 1.0 0.1
1 16 11 1 16 50.0 11.5 0.01 1.0 0.1
1 17 11 1 17 50.0 11.0 0.01 1.0 0.1
1 18 11 1 18 50.0 10.5 0.01 1.0 0.1
1 19 11 1 19 50.0 10.0 0.01 1.0 0.1
1 20 11 1 20 50.0 9.5 0.01 1.0 0.1
1 0 0
1 1 0 0 0 0 0 0 0.03 
3.0 
3.0 
