# BAS6 package for MODFLOW-2005 generated by Flopy 3.9.3
FREE
INTERNAL               1    (21I10) -1 #ibound layer 1                
        -1         1         1         1         1         1         1         1         1         1         1         1         1         1         1         1         1         1         1         1        -1
        -1         1         1         1         1         1         1         1         1         1         1         1         1         1         1         1         1         1         1         1        -1
        -1         1         1         1         1         1         1         1         1         1         1         1         1         1         1         1         1         1         1         1        -1
        -1         1         1         1         1         1         1         1         1         1         1         1         1         1         1         1         1         1         1         1        -1
        -1         1         1         1         1         1         1         1         1         1         1         1         1         1         1         1         1         1         1         1        -1
        -1         1         1         1         1         1         1         1         1         1         1         1         1         1         1         1         1         1         1         1        -1
        -1         1         1         1         1         1         1         1         1         1         1         1         1         1         1         1         1         1         1         1        -1
        -1         1         1         1         1         1         1         1         1         1         1         1         1         1         1         1         1         1         1         1        -1
        -1         1         1         1         1         1         1         1         1         1         1         1         1         1         1         1         1         1         1         1        -1
        -1         1         1         1         1         1         1         1         1         1         1         1         1         1         1         1         1         1         1         1        -1
        -1         1         1         1         1         1         1         1         1         1         1         1         1         1         1         1         1         1         1         1        -1
        -1         1         1         1         1         1         1         1         1         1         1         1         1         1         1         1         1         1         1         1        -1
        -1         1         1         1         1         1         1         1         1         1         1         1         1         1         1         1         1         1         1         1        -1
        -1         1         1         1         1         1         1         1         1         1         1         1         1         1         1         1         1         1         1         1        -1
        -1         1         1         1         1         1         1         1         1         1         1         1         1         1         1         1         1         1         1         1        -1
        -1         1         1         1         1         1         1         1         1         1         1         1         1         1         1         1         1         1         1         1        -1
        -1         1         1         1         1         1         1         1         1         1         1         1         1         1         1         1         1         1         1         1        -1
        -1         1         1         1         1         1         1         1         1         1         1         1         1         1         1         1         1         1         1         1        -1
        -1         1         1         1         1         1         1         1         1         1         1         1         1         1         1         1         1         1         1         1        -1
        -1         1         1         1         1         1         1         1         1         1         1         1         1         1         1         1         1         1         1         1        -1
   -999.99
INTERNAL               1  (21E15.6) -1 #strt layer 1                  
   2.250000E+01   2.250000E+01   2.250000E+01   2.250000E+01   2.250000E+01   2.250000E+01   2.250000E+01   2.250000E+01   2.250000E+01   2.250000E+01   2.250000E+01   2.250000E+01   2.250000E+01   2.250000E+01   2.250000E+01   2.250000E+01   2.250000E+01   2.250000E+01   2.250000E+01   2.250000E+01   2.250000E+01
   2.200000E+01   2.200000E+01   2.200000E+01   2.200000E+01   2.200000E+01   2.200000E+01   2.200000E+01   2.200000E+01   2.200000E+01   2.200000E+01   2.200000E+01   2.200000E+01   2.200000E+01   2.200000E+01   2.200000E+01   2.200000E+01   2.200000E+01   2.200000E+01   2.200000E+01   2.200000E+01   2.200000E+01
   2.150000E+01   2.150000E+01   2.150000E+01   2.150000E+01   2.150000E+01   2.150000E+01   2.150000E+01   2.150000E+01   2.150000E+01   2.150000E+01   2.150000E+01   2.150000E+01   2.150000E+01   2.150000E+01   2.150000E+01   2.150000E+01   2.150000E+01   2.150000E+01   2.150000E+01   2.150000E+01   2.150000E+01
   2.100000E+01   2.100000E+01   2.100000E+01   2.100000E+01   2.100000E+01   2.100000E+01   2.100000E+01   2.100000E+01   2.100000E+01   2.100000E+01   2.100000E+01   2.100000E+01   2.100000E+01   2.100000E+01   2.100000E+01   2.100000E+01   2.100000E+01   2.100000E+01   2.100000E+01   2.100000E+01   2.100000E+01
   2.050000E+01   2.050000E+01   2.050000E+01   2.050000E+01   2.050000E+01   2.050000E+01   2.050000E+01   2.050000E+01   2.050000E+01   2.050000E+01   2.050000E+01   2.050000E+01   2.050000E+01   2.050000E+01   2.050000E+01   2.050000E+01   2.050000E+01   2.050000E+01   2.050000E+01   2.050000E+01   2.050000E+01
   2.000000E+01   2.000000E+01   2.000000E+01   2.000000E+01   2.000000E+01   2.000000E+01   2.000000E+01   2.000000E+01   2.000000E+01   2.000000E+01   2.000000E+01   2.000000E+01   2.000000E+01   2.000000E+01   2.000000E+01   2.000000E+01   2.000000E+01   2.000000E+01   2.000000E+01   2.000000E+01   2.000000E+01
   1.950000E+01   1.950000E+01   1.950000E+01   1.950000E+01   1.950000E+01   1.950000E+01   1.950000E+01   1.950000E+01   1.950000E+01   1.950000E+01   1.950000E+01   1.950000E+01   1.950000E+01   1.950000E+01   1.950000E+01   1.950000E+01   1.950000E+01   1.950000E+01   1.950000E+01   1.950000E+01   1.950000E+01
   1.900000E+01   1.900000E+01   1.900000E+01   1.900000E+01   1.900000E+01   1.900000E+01   1.900000E+01   1.900000E+01   1.900000E+01   1.900000E+01   1.900000E+01   1.900000E+01   1.900000E+01   1.900000E+01   1.900000E+01   1.900000E+01   1.900000E+01   1.900000E+01   1.900000E+01   1.900000E+01   1.900000E+01
   1.850000E+01   1.850000E+01   1.850000E+01   1.850000E+01   1.850000E+01   1.850000E+01   1.850000E+01   1.850000E+01   1.850000E+01   1.850000E+01   1.850000E+01   1.850000E+01   1.850000E+01   1.850000E+01   1.850000E+01   1.850000E+01   1.850000E+01   1.850000E+01   1.850000E+01   1.850000E+01   1.850000E+01
   1.800000E+01   1.800000E+01   1.800000E+01   1.800000E+01   1.800000E+01   1.800000E+01   1.800000E+01   1.800000E+01   1.800000E+01   1.800000E+01   1.800000E+01   1.800000E+01   1.800000E+01   1.800000E+01   1.800000E+01   1.800000E+01   1.800000E+01   1.800000E+01   1.800000E+01   1.800000E+01   1.800000E+01
   1.750000E+01   1.750000E+01   1.750000E+01   1.750000E+01   1.750000E+01   1.750000E+01   1.750000E+01   1.750000E+01   1.750000E+01   1.750000E+01   1.750000E+01   1.750000E+01   1.750000E+01   1.750000E+01   1.750000E+01   1.750000E+01   1.750000E+01   1.750000E+01   1.750000E+01   1.750000E+01   1.750000E+01
   1.700000E+01   1.700000E+01   1.700000E+01   1.700000E+01   1.700000E+01   1.700000E+01   1.700000E+01   1.700000E+01   1.700000E+01   1.700000E+01   1.700000E+01   1.700000E+01   1.700000E+01   1.700000E+01   1.700000E+01   1.700000E+01   1.700000E+01   1.700000E+01   1.700000E+01   1.700000E+01   1.700000E+01
   1.650000E+01   1.650000E+01   1.650000E+01   1.650000E+01   1.650000E+01   1.650000E+01   1.650000E+01   1.650000E+01   1.650000E+01   1.650000E+01   1.650000E+01   1.650000E+01   1.650000E+01   1.650000E+01   1.650000E+01   1.650000E+01   1.650000E+01   1.650000E+01   1.650000E+01   1.650000E+01   1.650000E+01
   1.600000E+01   1.600000E+01   1.600000E+01   1.600000E+01   1.600000E+01   1.600000E+01   1.600000E+01   1.600000E+01   1.600000E+01   1.600000E+01   1.600000E+01   1.600000E+01   1.600000E+01   1.600000E+01   1.600000E+01   1.600000E+01   1.600000E+01   1.600000E+01   1.600000E+01   1.600000E+01   1.600000E+01
   1.550000E+01   1.550000E+01   1.550000E+01   1.550000E+01   1.550000E+01   1.550000E+01   1.550000E+01   1.550000E+01   1.550000E+01   1.550000E+01   1.550000E+01   1.550000E+01   1.550000E+01   1.550000E+01   1.550000E+01   1.550000E+01   1.550000E+01   1.550000E+01   1.550000E+01   1.550000E+01   1.550000E+01
   1.500000E+01   1.500000E+01   1.500000E+01   1.500000E+01   1.500000E+01   1.500000E+01   1.500000E+01   1.500000E+01   1.500000E+01   1.500000E+01   1.500000E+01   1.500000E+01   1.500000E+01   1.500000E+01   1.500000E+01   1.500000E+01   1.500000E+01   1.500000E+01   1.500000E+01   1.500000E+01   1.500000E+01
   1.450000E+01   1.450000E+01   1.450000E+01   1.450000E+01   1.450000E+01   1.450000E+01   1.450000E+01   1.450000E+01   1.450000E+01   1.450000E+01   1.450000E+01   1.450000E+01   1.450000E+01   1.450000E+01   1.450000E+01   1.450000E+01   1.450000E+01   1.450000E+01   1.450000E+01   1.450000E+01   1.450000E+01
   1.400000E+01   1.400000E+01   1.400000E+01   1.400000E+01   1.400000E+01   1.400000E+01   1.400000E+01   1.400000E+01   1.400000E+01   1.400000E+01   1.400000E+01   1.400000E+01   1.400000E+01   1.400000E+01   1.400000E+01   1.400000E+01   1.400000E+01   1.400000E+01   1.400000E+01   1.400000E+01   1.400000E+01
   1.350000E+01   1.350000E+01   1.350000E+01   1.350000E+01   1.350000E+01   1.350000E+01   1.350000E+01   1.350000E+01   1.350000E+01   1.350000E+01   1.350000E+01   1.350000E+01   1.350000E+01   1.350000E+01   1.350000E+01   1.350000E+01   1.350000E+01   1.350000E+01   1.350000E+01   1.350000E+01   1.350000E+01
   1.300000E+01   1.300000E+01   1.300000E+01   1.300000E+01   1.300000E+01   1.300000E+01   1.300000E+01   1.300000E+01   1.300000E+01   1.300000E+01   1.300000E+01   1.300000E+01   1.300000E+01   1.300000E+01   1.300000E+01   1.300000E+01   1.300000E+01   1.300000E+01   1.300000E+01   1.300000E+01   1.300000E+01
